<?xml version="1.0" encoding="UTF-8"?>

<!-- generated on 2024-08-17 13:16:09 by Eclipse SUMO netedit Version 1.20.0
<configuration xmlns:xsi="http://www.w3.org/2001/XMLSchema-instance" xsi:noNamespaceSchemaLocation="http://sumo.dlr.de/xsd/neteditConfiguration.xsd">

    <input>
        <sumocfg-file value="C:\Users\Pujan\Desktop\My portfolio\Traffic project\Project 1- Emergency vehicle route optimization\sum.sumocfg"/>
        <route-files value="C:\Users\Pujan\Desktop\My portfolio\Traffic project\Project 1- Emergency vehicle route optimization\car3.rou.xml"/>
        <sumo-net-file value="C:\Users\Pujan\Desktop\My portfolio\Traffic project\Project 1- Emergency vehicle route optimization\route.net.xml"/>
    </input>

    <processing>
        <geometry.min-radius.fix.railways value="false"/>
        <geometry.max-grade.fix value="false"/>
        <offset.disable-normalization value="true"/>
        <lefthand value="0"/>
    </processing>

    <junctions>
        <no-turnarounds value="true"/>
        <junctions.corner-detail value="5"/>
        <junctions.limit-turn-speed value="5.50"/>
        <rectangular-lane-cut value="0"/>
    </junctions>

    <pedestrian>
        <walkingareas value="0"/>
    </pedestrian>

</configuration>
-->

<nodes version="1.20" xmlns:xsi="http://www.w3.org/2001/XMLSchema-instance" xsi:noNamespaceSchemaLocation="http://sumo.dlr.de/xsd/nodes_file.xsd">
</nodes>
