<?xml version="1.0" encoding="UTF-8"?>

<!-- generated on 2024-08-24 21:22:03 by Eclipse SUMO netedit Version v1_20_0+1576-e25eae22153
<neteditConfiguration xmlns:xsi="http://www.w3.org/2001/XMLSchema-instance" xsi:noNamespaceSchemaLocation="http://sumo.dlr.de/xsd/neteditConfiguration.xsd">

    <input>
        <sumocfg-file value="/home/piyush/Desktop/12345/Project 1- Emergency vehicle route optimization/sumo.sumocfg"/>
        <additional-files value="/home/piyush/Desktop/12345/Project 1- Emergency vehicle route optimization/sumo.add.xml"/>
        <route-files value="/home/piyush/Desktop/12345/Project 1- Emergency vehicle route optimization/car3.rou.xml"/>
        <sumo-net-file value="/home/piyush/Desktop/12345/Project 1- Emergency vehicle route optimization/route.net.xml"/>
    </input>

    <output>
        <output-file value="/home/piyush/Desktop/12345/Project 1- Emergency vehicle route optimization/route.net.xml"/>
    </output>

    <processing>
        <geometry.min-radius.fix.railways value="false"/>
        <geometry.max-grade.fix value="false"/>
        <offset.disable-normalization value="true"/>
        <lefthand value="0"/>
    </processing>

    <junctions>
        <no-turnarounds value="true"/>
        <junctions.corner-detail value="5"/>
        <junctions.limit-turn-speed value="5.50"/>
        <rectangular-lane-cut value="0"/>
    </junctions>

    <pedestrian>
        <walkingareas value="0"/>
    </pedestrian>

</neteditConfiguration>
-->

<net version="1.20" junctionCornerDetail="5" limitTurnSpeed="5.50" xmlns:xsi="http://www.w3.org/2001/XMLSchema-instance" xsi:noNamespaceSchemaLocation="http://sumo.dlr.de/xsd/net_file.xsd">

    <location netOffset="0.00,0.00" convBoundary="-242.32,-221.17,578.67,339.91" origBoundary="-10000000000.00,-10000000000.00,10000000000.00,10000000000.00" projParameter="!"/>

    <edge id=":J1_0" function="internal">
        <lane id=":J1_0_0" index="0" speed="6.93" length="9.94" shape="-26.94,-68.66 -29.49,-68.27 -31.36,-67.09 -32.56,-65.10 -33.09,-62.33"/>
    </edge>
    <edge id=":J1_1" function="internal">
        <lane id=":J1_1_0" index="0" speed="13.89" length="21.03" shape="-26.94,-68.66 -47.97,-68.58"/>
        <lane id=":J1_1_1" index="1" speed="13.89" length="21.06" shape="-26.90,-71.86 -47.97,-71.78"/>
    </edge>
    <edge id=":J1_3" function="internal">
        <lane id=":J1_3_0" index="0" speed="9.22" length="4.08" shape="-26.90,-71.86 -30.94,-72.45"/>
    </edge>
    <edge id=":J1_16" function="internal">
        <lane id=":J1_16_0" index="0" speed="9.22" length="15.13" shape="-30.94,-72.45 -32.13,-72.62 -35.85,-74.85 -38.08,-78.57 -38.82,-83.77"/>
    </edge>
    <edge id=":J1_4" function="internal">
        <lane id=":J1_4_0" index="0" speed="6.51" length="9.03" shape="-32.42,-83.75 -32.07,-81.30 -31.03,-79.54 -29.28,-78.48 -26.84,-78.13"/>
    </edge>
    <edge id=":J1_5" function="internal">
        <lane id=":J1_5_0" index="0" speed="13.89" length="21.34" shape="-32.42,-83.75 -33.09,-62.33"/>
        <lane id=":J1_5_1" index="1" speed="13.89" length="21.34" shape="-35.62,-83.76 -36.28,-62.52"/>
    </edge>
    <edge id=":J1_7" function="internal">
        <lane id=":J1_7_0" index="0" speed="9.33" length="19.61" shape="-35.62,-83.76 -36.40,-78.52 -38.72,-74.77 -42.57,-72.53 -47.97,-71.78"/>
    </edge>
    <edge id=":J1_8" function="internal">
        <lane id=":J1_8_0" index="0" speed="6.60" length="9.31" shape="-47.97,-78.18 -45.37,-78.53 -43.51,-79.58 -42.39,-81.33 -42.02,-83.77"/>
    </edge>
    <edge id=":J1_9" function="internal">
        <lane id=":J1_9_0" index="0" speed="13.89" length="21.11" shape="-47.97,-78.18 -26.84,-78.13"/>
        <lane id=":J1_9_1" index="1" speed="13.89" length="21.11" shape="-47.97,-74.98 -26.87,-74.93"/>
    </edge>
    <edge id=":J1_11" function="internal">
        <lane id=":J1_11_0" index="0" speed="9.15" length="4.83" shape="-47.97,-74.98 -43.18,-74.29"/>
    </edge>
    <edge id=":J1_17" function="internal">
        <lane id=":J1_17_0" index="0" speed="9.15" length="14.92" shape="-43.18,-74.29 -42.58,-74.20 -38.83,-71.86 -36.73,-67.97 -36.28,-62.52"/>
    </edge>
    <edge id=":J1_12" function="internal">
        <lane id=":J1_12_0" index="0" speed="6.40" length="9.05" shape="-42.57,-62.89 -42.80,-65.38 -43.78,-67.16 -45.50,-68.22 -47.97,-68.58"/>
    </edge>
    <edge id=":J1_13" function="internal">
        <lane id=":J1_13_0" index="0" speed="13.89" length="20.98" shape="-42.57,-62.89 -42.02,-83.77"/>
        <lane id=":J1_13_1" index="1" speed="13.89" length="20.98" shape="-39.37,-62.70 -38.82,-83.77"/>
    </edge>
    <edge id=":J1_15" function="internal">
        <lane id=":J1_15_0" index="0" speed="9.51" length="3.93" shape="-39.37,-62.70 -38.64,-66.56"/>
    </edge>
    <edge id=":J1_18" function="internal">
        <lane id=":J1_18_0" index="0" speed="9.51" length="15.81" shape="-38.64,-66.56 -38.36,-68.06 -35.94,-71.88 -32.11,-74.17 -26.87,-74.93"/>
    </edge>
    <edge id=":J12_0" function="internal">
        <lane id=":J12_0_0" index="0" speed="8.96" length="18.32" shape="337.71,333.79 332.72,333.08 329.20,330.94 327.12,327.37 326.50,322.38"/>
        <lane id=":J12_0_1" index="1" speed="7.65" length="13.08" shape="337.70,330.59 334.15,330.08 331.63,328.55 330.15,326.00 329.70,322.44"/>
    </edge>
    <edge id=":J12_2" function="internal">
        <lane id=":J12_2_0" index="0" speed="3.90" length="2.62" shape="336.10,322.56 336.19,323.27 336.49,323.78 336.99,324.09 337.70,324.19"/>
        <lane id=":J12_2_1" index="1" speed="6.07" length="7.85" shape="332.90,322.50 333.17,324.64 334.06,326.17 335.57,327.08 337.70,327.39"/>
    </edge>
    <edge id=":J2_0" function="internal">
        <lane id=":J2_0_0" index="0" speed="8.95" length="18.66" shape="149.67,-77.82 154.77,-77.08 158.32,-74.88 160.35,-71.21 160.83,-66.09"/>
        <lane id=":J2_0_1" index="1" speed="7.65" length="13.33" shape="149.67,-74.62 153.30,-74.09 155.85,-72.52 157.29,-69.90 157.64,-66.24"/>
    </edge>
    <edge id=":J2_2" function="internal">
        <lane id=":J2_2_0" index="0" speed="3.90" length="2.67" shape="151.24,-66.55 151.17,-67.28 150.89,-67.81 150.38,-68.12 149.65,-68.23"/>
        <lane id=":J2_2_1" index="1" speed="6.07" length="8.00" shape="154.44,-66.40 154.23,-68.59 153.37,-70.16 151.84,-71.11 149.66,-71.43"/>
    </edge>
    <edge id=":J4_0" function="internal">
        <lane id=":J4_0_0" index="0" speed="6.59" length="9.29" shape="-32.93,60.47 -35.52,60.82 -37.37,61.87 -38.47,63.62 -38.84,66.08"/>
    </edge>
    <edge id=":J4_1" function="internal">
        <lane id=":J4_1_0" index="0" speed="13.89" length="21.11" shape="-32.93,60.47 -54.04,60.47"/>
        <lane id=":J4_1_1" index="1" speed="13.89" length="21.11" shape="-32.93,57.27 -54.04,57.27"/>
    </edge>
    <edge id=":J4_3" function="internal">
        <lane id=":J4_3_0" index="0" speed="9.18" length="4.98" shape="-32.93,57.27 -37.86,56.56"/>
    </edge>
    <edge id=":J4_16" function="internal">
        <lane id=":J4_16_0" index="0" speed="9.18" length="14.74" shape="-37.86,56.56 -38.32,56.49 -42.07,54.17 -44.20,50.30 -44.71,44.88"/>
    </edge>
    <edge id=":J4_4" function="internal">
        <lane id=":J4_4_0" index="0" speed="6.41" length="9.04" shape="-38.35,45.19 -38.11,47.67 -37.13,49.45 -35.40,50.51 -32.94,50.87"/>
    </edge>
    <edge id=":J4_5" function="internal">
        <lane id=":J4_5_0" index="0" speed="13.89" length="20.97" shape="-38.35,45.19 -38.84,66.08"/>
        <lane id=":J4_5_1" index="1" speed="13.89" length="20.97" shape="-41.55,45.03 -42.04,66.08"/>
    </edge>
    <edge id=":J4_7" function="internal">
        <lane id=":J4_7_0" index="0" speed="9.51" length="4.27" shape="-41.55,45.03 -42.33,49.24"/>
    </edge>
    <edge id=":J4_17" function="internal">
        <lane id=":J4_17_0" index="0" speed="9.51" length="15.47" shape="-42.33,49.24 -42.54,50.39 -44.95,54.21 -48.79,56.51 -54.04,57.27"/>
    </edge>
    <edge id=":J4_8" function="internal">
        <lane id=":J4_8_0" index="0" speed="6.87" length="9.81" shape="-54.05,50.87 -51.47,50.49 -49.59,49.33 -48.40,47.41 -47.90,44.72"/>
    </edge>
    <edge id=":J4_9" function="internal">
        <lane id=":J4_9_0" index="0" speed="13.89" length="21.11" shape="-54.05,50.87 -32.94,50.87"/>
        <lane id=":J4_9_1" index="1" speed="13.89" length="21.11" shape="-54.05,54.07 -32.94,54.07"/>
    </edge>
    <edge id=":J4_11" function="internal">
        <lane id=":J4_11_0" index="0" speed="9.26" length="5.01" shape="-54.05,54.07 -49.08,54.78"/>
    </edge>
    <edge id=":J4_18" function="internal">
        <lane id=":J4_18_0" index="0" speed="9.26" length="14.35" shape="-49.08,54.78 -48.79,54.82 -45.04,57.07 -42.79,60.82 -42.04,66.08"/>
    </edge>
    <edge id=":J4_12" function="internal">
        <lane id=":J4_12_0" index="0" speed="6.51" length="9.03" shape="-48.44,66.07 -48.79,63.62 -49.84,61.87 -51.59,60.82 -54.04,60.47"/>
    </edge>
    <edge id=":J4_13" function="internal">
        <lane id=":J4_13_0" index="0" speed="13.89" length="21.28" shape="-48.44,66.07 -47.90,44.72"/>
        <lane id=":J4_13_1" index="1" speed="13.89" length="21.28" shape="-45.24,66.07 -44.71,44.88"/>
    </edge>
    <edge id=":J4_15" function="internal">
        <lane id=":J4_15_0" index="0" speed="9.32" length="5.31" shape="-45.24,66.07 -44.47,60.82"/>
    </edge>
    <edge id=":J4_19" function="internal">
        <lane id=":J4_19_0" index="0" speed="9.32" length="14.30" shape="-44.47,60.82 -42.16,57.07 -38.32,54.82 -32.94,54.07"/>
    </edge>
    <edge id=":J5_0" function="internal">
        <lane id=":J5_0_0" index="0" speed="6.70" length="9.53" shape="160.90,60.38 158.27,60.74 156.39,61.83 155.23,63.63 154.82,66.16"/>
    </edge>
    <edge id=":J5_1" function="internal">
        <lane id=":J5_1_0" index="0" speed="13.89" length="21.22" shape="160.90,60.38 139.68,60.38"/>
        <lane id=":J5_1_1" index="1" speed="13.89" length="21.22" shape="160.90,57.18 139.68,57.18"/>
    </edge>
    <edge id=":J5_3" function="internal">
        <lane id=":J5_3_0" index="0" speed="9.18" length="4.97" shape="160.90,57.18 155.98,56.48"/>
    </edge>
    <edge id=":J5_16" function="internal">
        <lane id=":J5_16_0" index="0" speed="9.18" length="14.75" shape="155.98,56.48 155.52,56.41 151.76,54.09 149.62,50.22 149.11,44.80"/>
    </edge>
    <edge id=":J5_4" function="internal">
        <lane id=":J5_4_0" index="0" speed="6.41" length="9.04" shape="155.50,45.11 155.73,47.59 156.71,49.36 158.44,50.43 160.90,50.78"/>
    </edge>
    <edge id=":J5_5" function="internal">
        <lane id=":J5_5_0" index="0" speed="13.89" length="21.11" shape="155.50,45.11 154.82,66.16"/>
        <lane id=":J5_5_1" index="1" speed="13.89" length="21.11" shape="152.30,44.96 151.62,66.11"/>
    </edge>
    <edge id=":J5_7" function="internal">
        <lane id=":J5_7_0" index="0" speed="9.53" length="4.62" shape="152.30,44.96 151.44,49.50"/>
    </edge>
    <edge id=":J5_17" function="internal">
        <lane id=":J5_17_0" index="0" speed="9.53" length="15.20" shape="151.44,49.50 151.29,50.30 148.85,54.13 144.98,56.42 139.68,57.18"/>
    </edge>
    <edge id=":J5_8" function="internal">
        <lane id=":J5_8_0" index="0" speed="6.89" length="9.86" shape="139.68,50.78 142.30,50.40 144.20,49.25 145.41,47.33 145.91,44.65"/>
    </edge>
    <edge id=":J5_9" function="internal">
        <lane id=":J5_9_0" index="0" speed="13.89" length="21.22" shape="139.68,50.78 160.90,50.78"/>
        <lane id=":J5_9_1" index="1" speed="13.89" length="21.22" shape="139.68,53.98 160.90,53.98"/>
    </edge>
    <edge id=":J5_11" function="internal">
        <lane id=":J5_11_0" index="0" speed="9.23" length="5.02" shape="139.68,53.98 144.65,54.69"/>
    </edge>
    <edge id=":J5_18" function="internal">
        <lane id=":J5_18_0" index="0" speed="9.23" length="14.46" shape="144.65,54.69 144.98,54.74 148.73,57.01 150.95,60.80 151.62,66.11"/>
    </edge>
    <edge id=":J5_12" function="internal">
        <lane id=":J5_12_0" index="0" speed="6.47" length="9.03" shape="145.22,66.01 144.91,63.55 143.88,61.79 142.14,60.74 139.68,60.38"/>
    </edge>
    <edge id=":J5_13" function="internal">
        <lane id=":J5_13_0" index="0" speed="13.89" length="21.32" shape="145.22,66.01 145.91,44.65"/>
        <lane id=":J5_13_1" index="1" speed="13.89" length="21.32" shape="148.42,66.06 149.11,44.80"/>
    </edge>
    <edge id=":J5_15" function="internal">
        <lane id=":J5_15_0" index="0" speed="9.40" length="5.35" shape="148.42,66.06 149.27,60.78"/>
    </edge>
    <edge id=":J5_19" function="internal">
        <lane id=":J5_19_0" index="0" speed="9.40" length="14.38" shape="149.27,60.78 151.64,57.00 155.51,54.74 160.90,53.98"/>
    </edge>
    <edge id=":J6_0" function="internal">
        <lane id=":J6_0_0" index="0" speed="6.52" length="9.04" shape="143.34,193.26 142.98,190.81 141.94,189.05 140.19,187.99 137.74,187.63"/>
    </edge>
    <edge id=":J6_1" function="internal">
        <lane id=":J6_1_0" index="0" speed="13.89" length="20.96" shape="143.34,193.26 143.50,172.27"/>
        <lane id=":J6_1_1" index="1" speed="13.89" length="20.96" shape="146.54,193.26 146.70,172.32"/>
    </edge>
    <edge id=":J6_3" function="internal">
        <lane id=":J6_3_0" index="0" speed="9.29" length="5.15" shape="146.54,193.26 147.27,188.16"/>
    </edge>
    <edge id=":J6_16" function="internal">
        <lane id=":J6_16_0" index="0" speed="9.29" length="14.30" shape="147.27,188.16 147.29,188.02 149.56,184.27 153.35,182.00 158.66,181.23"/>
    </edge>
    <edge id=":J6_4" function="internal">
        <lane id=":J6_4_0" index="0" speed="6.56" length="9.16" shape="158.68,187.63 156.17,187.99 154.37,189.05 153.29,190.80 152.94,193.25"/>
    </edge>
    <edge id=":J6_5" function="internal">
        <lane id=":J6_5_0" index="0" speed="13.89" length="20.93" shape="158.68,187.63 137.74,187.63"/>
        <lane id=":J6_5_1" index="1" speed="13.89" length="20.93" shape="158.67,184.43 137.76,184.43"/>
    </edge>
    <edge id=":J6_7" function="internal">
        <lane id=":J6_7_0" index="0" speed="9.23" length="5.16" shape="158.67,184.43 153.56,183.72"/>
    </edge>
    <edge id=":J6_17" function="internal">
        <lane id=":J6_17_0" index="0" speed="9.23" length="14.35" shape="153.56,183.72 153.36,183.70 149.59,181.43 147.37,177.64 146.70,172.32"/>
    </edge>
    <edge id=":J6_8" function="internal">
        <lane id=":J6_8_0" index="0" speed="6.46" length="9.03" shape="153.10,172.43 153.41,174.89 154.44,176.64 156.18,177.69 158.64,178.03"/>
    </edge>
    <edge id=":J6_9" function="internal">
        <lane id=":J6_9_0" index="0" speed="13.89" length="20.85" shape="153.10,172.43 152.94,193.25"/>
        <lane id=":J6_9_1" index="1" speed="13.89" length="20.85" shape="149.90,172.37 149.74,193.25"/>
    </edge>
    <edge id=":J6_11" function="internal">
        <lane id=":J6_11_0" index="0" speed="9.32" length="4.81" shape="149.90,172.37 149.15,177.13"/>
    </edge>
    <edge id=":J6_18" function="internal">
        <lane id=":J6_18_0" index="0" speed="9.32" length="14.65" shape="149.15,177.13 149.07,177.67 146.77,181.44 143.00,183.70 137.76,184.43"/>
    </edge>
    <edge id=":J6_12" function="internal">
        <lane id=":J6_12_0" index="0" speed="6.60" length="9.23" shape="137.79,178.03 140.25,177.68 142.03,176.60 143.11,174.80 143.50,172.27"/>
    </edge>
    <edge id=":J6_13" function="internal">
        <lane id=":J6_13_0" index="0" speed="13.89" length="20.87" shape="137.79,178.03 158.64,178.03"/>
        <lane id=":J6_13_1" index="1" speed="13.89" length="20.87" shape="137.77,181.23 158.66,181.23"/>
    </edge>
    <edge id=":J6_15" function="internal">
        <lane id=":J6_15_0" index="0" speed="9.27" length="4.86" shape="137.77,181.23 142.58,181.94"/>
    </edge>
    <edge id=":J6_19" function="internal">
        <lane id=":J6_19_0" index="0" speed="9.27" length="14.46" shape="142.58,181.94 143.00,182.00 146.74,184.26 148.99,188.02 149.74,193.25"/>
    </edge>
    <edge id=":J7_0" function="internal">
        <lane id=":J7_0_0" index="0" speed="6.71" length="9.53" shape="344.59,186.84 342.00,187.21 340.13,188.31 338.99,190.13 338.57,192.69"/>
    </edge>
    <edge id=":J7_1" function="internal">
        <lane id=":J7_1_0" index="0" speed="13.89" length="21.15" shape="344.59,186.84 323.44,186.90"/>
        <lane id=":J7_1_1" index="1" speed="13.89" length="21.15" shape="344.59,183.64 323.43,183.70"/>
    </edge>
    <edge id=":J7_3" function="internal">
        <lane id=":J7_3_0" index="0" speed="9.21" length="4.93" shape="344.59,183.64 339.70,182.94"/>
    </edge>
    <edge id=":J7_16" function="internal">
        <lane id=":J7_16_0" index="0" speed="9.21" length="14.67" shape="339.70,182.94 339.24,182.88 335.48,180.58 333.31,176.75 332.71,171.39"/>
    </edge>
    <edge id=":J7_4" function="internal">
        <lane id=":J7_4_0" index="0" speed="6.44" length="9.03" shape="339.11,171.59 339.38,174.07 340.38,175.83 342.12,176.89 344.58,177.24"/>
    </edge>
    <edge id=":J7_5" function="internal">
        <lane id=":J7_5_0" index="0" speed="13.89" length="21.12" shape="339.11,171.59 338.57,192.69"/>
        <lane id=":J7_5_1" index="1" speed="13.89" length="21.12" shape="335.91,171.49 335.37,192.63"/>
    </edge>
    <edge id=":J7_7" function="internal">
        <lane id=":J7_7_0" index="0" speed="9.47" length="4.85" shape="335.91,171.49 335.08,176.27"/>
    </edge>
    <edge id=":J7_17" function="internal">
        <lane id=":J7_17_0" index="0" speed="9.47" length="14.90" shape="335.08,176.27 334.98,176.81 332.59,180.62 328.74,182.91 323.43,183.70"/>
    </edge>
    <edge id=":J7_8" function="internal">
        <lane id=":J7_8_0" index="0" speed="6.81" length="9.70" shape="323.40,177.30 326.00,176.91 327.89,175.78 329.06,173.91 329.51,171.29"/>
    </edge>
    <edge id=":J7_9" function="internal">
        <lane id=":J7_9_0" index="0" speed="13.89" length="21.18" shape="323.40,177.30 344.58,177.24"/>
        <lane id=":J7_9_1" index="1" speed="13.89" length="21.18" shape="323.41,180.50 344.58,180.44"/>
    </edge>
    <edge id=":J7_11" function="internal">
        <lane id=":J7_11_0" index="0" speed="9.22" length="5.06" shape="323.41,180.50 328.42,181.19"/>
    </edge>
    <edge id=":J7_18" function="internal">
        <lane id=":J7_18_0" index="0" speed="9.22" length="14.47" shape="328.42,181.19 328.73,181.24 332.50,183.50 334.71,187.30 335.37,192.63"/>
    </edge>
    <edge id=":J7_12" function="internal">
        <lane id=":J7_12_0" index="0" speed="6.46" length="9.03" shape="328.97,192.51 328.67,190.04 327.64,188.29 325.90,187.24 323.44,186.90"/>
    </edge>
    <edge id=":J7_13" function="internal">
        <lane id=":J7_13_0" index="0" speed="13.89" length="21.21" shape="328.97,192.51 329.51,171.29"/>
        <lane id=":J7_13_1" index="1" speed="13.89" length="21.21" shape="332.17,192.57 332.71,171.39"/>
    </edge>
    <edge id=":J7_15" function="internal">
        <lane id=":J7_15_0" index="0" speed="9.41" length="5.20" shape="332.17,192.57 333.01,187.43"/>
    </edge>
    <edge id=":J7_19" function="internal">
        <lane id=":J7_19_0" index="0" speed="9.41" length="14.50" shape="333.01,187.43 333.03,187.27 335.39,183.48 339.24,181.20 344.58,180.44"/>
    </edge>
    <edge id=":J8_0" function="internal">
        <lane id=":J8_0_0" index="0" speed="8.96" length="18.48" shape="331.41,50.86 336.44,51.58 339.98,53.75 342.04,57.36 342.60,62.42"/>
        <lane id=":J8_0_1" index="1" speed="7.65" length="13.20" shape="331.41,54.06 335.00,54.57 337.53,56.12 339.00,58.70 339.40,62.31"/>
    </edge>
    <edge id=":J8_2" function="internal">
        <lane id=":J8_2_0" index="0" speed="3.90" length="2.64" shape="333.00,62.11 332.92,61.39 332.63,60.87 332.12,60.56 331.40,60.46"/>
        <lane id=":J8_2_1" index="1" speed="6.07" length="7.92" shape="336.20,62.21 335.96,60.04 335.08,58.50 333.56,57.57 331.40,57.26"/>
    </edge>
    <edge id=":J9_0" function="internal">
        <lane id=":J9_0_0" index="0" speed="8.96" length="18.01" shape="-37.35,186.77 -42.23,186.05 -45.71,183.94 -47.80,180.45 -48.50,175.57"/>
        <lane id=":J9_0_1" index="1" speed="7.66" length="12.86" shape="-37.34,183.57 -40.82,183.06 -43.31,181.55 -44.80,179.05 -45.30,175.57"/>
    </edge>
    <edge id=":J9_2" function="internal">
        <lane id=":J9_2_0" index="0" speed="3.90" length="2.57" shape="-38.90,175.57 -38.80,176.27 -38.50,176.77 -38.00,177.07 -37.30,177.17"/>
        <lane id=":J9_2_1" index="1" speed="6.08" length="7.72" shape="-42.10,175.57 -41.80,177.66 -40.90,179.16 -39.41,180.06 -37.32,180.37"/>
    </edge>

    <edge id="-E0" from="J1" to="J0" priority="-1" shape="-37.24,-73.38 -39.18,-38.35 -33.07,-73.70 -242.32,-73.32">
        <lane id="-E0_0" index="0" speed="13.89" length="194.35" shape="-47.97,-68.58 -242.32,-68.52"/>
        <lane id="-E0_1" index="1" speed="13.89" length="194.35" shape="-47.97,-71.78 -242.32,-71.72"/>
    </edge>
    <edge id="-E1" from="J2" to="J1" priority="-1" shape="156.36,-73.01 -33.41,-73.48 -37.24,-73.38">
        <lane id="-E1_0" index="0" speed="13.89" length="176.57" shape="149.65,-68.23 -26.94,-68.66"/>
        <lane id="-E1_1" index="1" speed="13.89" length="176.57" shape="149.66,-71.43 -26.90,-71.86"/>
    </edge>
    <edge id="-E10" from="J4" to="J10" priority="-1">
        <lane id="-E10_0" index="0" speed="13.89" length="187.54" shape="-54.04,60.47 -241.59,60.55"/>
        <lane id="-E10_1" index="1" speed="13.89" length="187.54" shape="-54.04,57.27 -241.59,57.35"/>
    </edge>
    <edge id="-E11" from="J6" to="J9" priority="-1">
        <lane id="-E11_0" index="0" speed="13.89" length="175.10" shape="137.74,187.63 -37.35,186.77"/>
        <lane id="-E11_1" index="1" speed="13.89" length="175.10" shape="137.76,184.43 -37.34,183.57"/>
    </edge>
    <edge id="-E12" from="J12" to="J7" priority="-1">
        <lane id="-E12_0" index="0" speed="13.89" length="129.89" shape="326.50,322.38 328.97,192.51"/>
        <lane id="-E12_1" index="1" speed="13.89" length="129.89" shape="329.70,322.44 332.17,192.57"/>
    </edge>
    <edge id="-E13" from="J13" to="J12" priority="-1">
        <lane id="-E13_0" index="0" speed="13.89" length="240.97" shape="578.67,333.73 337.71,333.79"/>
        <lane id="-E13_1" index="1" speed="13.89" length="240.97" shape="578.67,330.53 337.70,330.59"/>
    </edge>
    <edge id="-E14" from="J7" to="J8" priority="-1">
        <lane id="-E14_0" index="0" speed="13.89" length="109.24" shape="329.51,171.29 333.00,62.11"/>
        <lane id="-E14_1" index="1" speed="13.89" length="109.24" shape="332.71,171.39 336.20,62.21"/>
    </edge>
    <edge id="-E15" from="J11" to="J7" priority="-1">
        <lane id="-E15_0" index="0" speed="13.89" length="223.11" shape="567.69,186.63 344.59,186.84"/>
        <lane id="-E15_1" index="1" speed="13.89" length="223.11" shape="567.69,183.43 344.59,183.64"/>
    </edge>
    <edge id="-E16" from="J15" to="J6" priority="-1">
        <lane id="-E16_0" index="0" speed="13.89" length="146.66" shape="143.41,339.91 143.34,193.26"/>
        <lane id="-E16_1" index="1" speed="13.89" length="146.66" shape="146.61,339.91 146.54,193.26"/>
    </edge>
    <edge id="-E2" from="J3" to="J1" priority="-1">
        <lane id="-E2_0" index="0" speed="13.89" length="137.41" shape="-32.09,-221.16 -32.42,-83.75"/>
        <lane id="-E2_1" index="1" speed="13.89" length="137.41" shape="-35.29,-221.17 -35.62,-83.76"/>
    </edge>
    <edge id="-E3" from="J4" to="J1" priority="-1">
        <lane id="-E3_0" index="0" speed="13.89" length="107.72" shape="-47.90,44.72 -42.57,-62.89"/>
        <lane id="-E3_1" index="1" speed="13.89" length="107.72" shape="-44.71,44.88 -39.37,-62.70"/>
    </edge>
    <edge id="-E4" from="J5" to="J4" priority="-1">
        <lane id="-E4_0" index="0" speed="13.89" length="172.62" shape="139.68,60.38 -32.93,60.47"/>
        <lane id="-E4_1" index="1" speed="13.89" length="172.62" shape="139.68,57.18 -32.93,57.27"/>
    </edge>
    <edge id="-E5" from="J6" to="J5" priority="-1">
        <lane id="-E5_0" index="0" speed="13.89" length="106.28" shape="143.50,172.27 145.22,66.01"/>
        <lane id="-E5_1" index="1" speed="13.89" length="106.28" shape="146.70,172.32 148.42,66.06"/>
    </edge>
    <edge id="-E6" from="J7" to="J6" priority="-1">
        <lane id="-E6_0" index="0" speed="13.89" length="164.76" shape="323.44,186.90 158.68,187.63"/>
        <lane id="-E6_1" index="1" speed="13.89" length="164.76" shape="323.43,183.70 158.67,184.43"/>
    </edge>
    <edge id="-E7" from="J8" to="J5" priority="-1">
        <lane id="-E7_0" index="0" speed="13.89" length="170.50" shape="331.40,60.46 160.90,60.38"/>
        <lane id="-E7_1" index="1" speed="13.89" length="170.50" shape="331.40,57.26 160.90,57.18"/>
    </edge>
    <edge id="-E8" from="J5" to="J2" priority="-1">
        <lane id="-E8_0" index="0" speed="13.89" length="111.33" shape="145.91,44.65 151.24,-66.55"/>
        <lane id="-E8_1" index="1" speed="13.89" length="111.33" shape="149.11,44.80 154.44,-66.40"/>
    </edge>
    <edge id="-E9" from="J4" to="J9" priority="-1">
        <lane id="-E9_0" index="0" speed="13.89" length="109.49" shape="-38.84,66.08 -38.90,175.57"/>
        <lane id="-E9_1" index="1" speed="13.89" length="109.49" shape="-42.04,66.08 -42.10,175.57"/>
    </edge>
    <edge id="E0" from="J0" to="J1" priority="-1">
        <lane id="E0_0" index="0" speed="13.89" length="194.35" shape="-242.32,-78.12 -47.97,-78.18"/>
        <lane id="E0_1" index="1" speed="13.89" length="194.35" shape="-242.32,-74.92 -47.97,-74.98"/>
    </edge>
    <edge id="E1" from="J1" to="J2" priority="-1" shape="-37.24,-73.38 -33.18,-73.34 156.36,-73.01">
        <lane id="E1_0" index="0" speed="13.89" length="176.53" shape="-26.84,-78.13 149.67,-77.82"/>
        <lane id="E1_1" index="1" speed="13.89" length="176.53" shape="-26.87,-74.93 149.67,-74.62"/>
    </edge>
    <edge id="E10" from="J10" to="J4" priority="-1">
        <lane id="E10_0" index="0" speed="13.89" length="187.54" shape="-241.59,50.95 -54.05,50.87"/>
        <lane id="E10_1" index="1" speed="13.89" length="187.54" shape="-241.59,54.15 -54.05,54.07"/>
    </edge>
    <edge id="E11" from="J9" to="J6" priority="-1">
        <lane id="E11_0" index="0" speed="13.89" length="175.10" shape="-37.30,177.17 137.79,178.03"/>
        <lane id="E11_1" index="1" speed="13.89" length="175.10" shape="-37.32,180.37 137.77,181.23"/>
    </edge>
    <edge id="E12" from="J7" to="J12" priority="-1">
        <lane id="E12_0" index="0" speed="13.89" length="129.89" shape="338.57,192.69 336.10,322.56"/>
        <lane id="E12_1" index="1" speed="13.89" length="129.89" shape="335.37,192.63 332.90,322.50"/>
    </edge>
    <edge id="E13" from="J12" to="J13" priority="-1">
        <lane id="E13_0" index="0" speed="13.89" length="240.97" shape="337.70,324.19 578.67,324.13"/>
        <lane id="E13_1" index="1" speed="13.89" length="240.97" shape="337.70,327.39 578.67,327.33"/>
    </edge>
    <edge id="E14" from="J8" to="J7" priority="-1">
        <lane id="E14_0" index="0" speed="13.89" length="109.24" shape="342.60,62.42 339.11,171.59"/>
        <lane id="E14_1" index="1" speed="13.89" length="109.24" shape="339.40,62.31 335.91,171.49"/>
    </edge>
    <edge id="E15" from="J7" to="J11" priority="-1">
        <lane id="E15_0" index="0" speed="13.89" length="223.11" shape="344.58,177.24 567.69,177.03"/>
        <lane id="E15_1" index="1" speed="13.89" length="223.11" shape="344.58,180.44 567.69,180.23"/>
    </edge>
    <edge id="E16" from="J6" to="J15" priority="-1">
        <lane id="E16_0" index="0" speed="13.89" length="146.66" shape="152.94,193.25 153.01,339.91"/>
        <lane id="E16_1" index="1" speed="13.89" length="146.66" shape="149.74,193.25 149.81,339.91"/>
    </edge>
    <edge id="E2" from="J1" to="J3" priority="-1">
        <lane id="E2_0" index="0" speed="13.89" length="137.41" shape="-42.02,-83.77 -41.69,-221.18"/>
        <lane id="E2_1" index="1" speed="13.89" length="137.41" shape="-38.82,-83.77 -38.49,-221.17"/>
    </edge>
    <edge id="E3" from="J1" to="J4" priority="-1" shape="-37.24,-73.38 -39.31,-38.43 -43.64,55.67">
        <lane id="E3_0" index="0" speed="13.89" length="107.66" shape="-33.09,-62.33 -34.52,-38.18 -38.35,45.19"/>
        <lane id="E3_1" index="1" speed="13.89" length="107.66" shape="-36.28,-62.52 -37.71,-38.35 -41.55,45.03"/>
    </edge>
    <edge id="E4" from="J4" to="J5" priority="-1">
        <lane id="E4_0" index="0" speed="13.89" length="172.62" shape="-32.94,50.87 139.68,50.78"/>
        <lane id="E4_1" index="1" speed="13.89" length="172.62" shape="-32.94,54.07 139.68,53.98"/>
    </edge>
    <edge id="E5" from="J5" to="J6" priority="-1">
        <lane id="E5_0" index="0" speed="13.89" length="106.28" shape="154.82,66.16 153.10,172.43"/>
        <lane id="E5_1" index="1" speed="13.89" length="106.28" shape="151.62,66.11 149.90,172.37"/>
    </edge>
    <edge id="E6" from="J6" to="J7" priority="-1">
        <lane id="E6_0" index="0" speed="13.89" length="164.76" shape="158.64,178.03 323.40,177.30"/>
        <lane id="E6_1" index="1" speed="13.89" length="164.76" shape="158.66,181.23 323.41,180.50"/>
    </edge>
    <edge id="E7" from="J5" to="J8" priority="-1">
        <lane id="E7_0" index="0" speed="13.89" length="170.50" shape="160.90,50.78 331.41,50.86"/>
        <lane id="E7_1" index="1" speed="13.89" length="170.50" shape="160.90,53.98 331.41,54.06"/>
    </edge>
    <edge id="E8" from="J2" to="J5" priority="-1">
        <lane id="E8_0" index="0" speed="13.89" length="111.33" shape="160.83,-66.09 155.50,45.11"/>
        <lane id="E8_1" index="1" speed="13.89" length="111.33" shape="157.64,-66.24 152.30,44.96"/>
    </edge>
    <edge id="E9" from="J9" to="J4" priority="-1">
        <lane id="E9_0" index="0" speed="13.89" length="109.49" shape="-48.50,175.57 -48.44,66.07"/>