<?xml version="1.0" encoding="UTF-8"?>

<!-- generated on 2024-08-24 21:22:03 by Eclipse SUMO netedit Version v1_20_0+1576-e25eae22153
-->

<additional xmlns:xsi="http://www.w3.org/2001/XMLSchema-instance" xsi:noNamespaceSchemaLocation="http://sumo.dlr.de/xsd/additional_file.xsd">
</additional>
