<?xml version="1.0" encoding="UTF-8"?>
<configuration>
  <input>
    <net-file value="network.net.xml"/>
    <route-files value="routes.rou.xml"/>
  </input>

  <time>
    <begin value="0"/>
    <end value="7200"/>
    <step-length value="0.5"/>
  </time>

  <processing>
    <lateral-resolution value="0.8"/>
  </processing>

  <report>
    <duration-log.disable value="true"/>
    <no-step-log value="true"/>
  </report>
</configuration>
